*Heading
** Job name: beam Model name: beam
** Generated by: Abaqus/CAE 2020
*Preprint, echo=NO, model=NO, history=NO, contact=NO
**
** PARTS
**
*Part, name=beam
*Node
      1, 0.00449997513, 0.00025099999
      2, 0.00185400003, 0.00025099999
      3, 0.00199997495,           0.
      4, 0.00185400003,           0.
      5, 0.00449997513,           0.
      6, -2.50001566e-08, 0.00025099999
      7, -2.50001566e-08,           0.
      8, 0.00185400003, 0.000899999985
      9, 0.00449997513, 0.000899999985
     10, -2.50001566e-08, 0.000899999985
     11, 0.00448502507, 0.00025099999
     12, 0.00447007548, 0.00025099999
     13, 0.00445512589, 0.00025099999
     14, 0.00444017584, 0.00025099999
     15, 0.00442522578, 0.00025099999
     16, 0.00441027619, 0.00025099999
     17, 0.00439532613, 0.00025099999
     18, 0.00438037608, 0.00025099999
     19, 0.00436542649, 0.00025099999
     20, 0.00435047643, 0.00025099999
** ... 6041 like lines cut
*********************** RECTENGULAR ***************************
*User element, nodes=4, type=U2, properties=3, coordinates=2, VARIABLES=12
6,7
***************************************************************
***************************************************************
*Element, type=U2
1, 1,  11, 706, 393
2, 11,  12, 707, 706
3, 12,  13, 708, 707
4, 13,  14, 709, 708
5, 14,  15, 710, 709
6, 15,  16, 711, 710
7, 16,  17, 712, 711
8, 17,  18, 713, 712
9, 18,  19, 714, 713
10, 19,  20, 715, 714
11, 20,  21, 716, 715
12, 21,  22, 717, 716
13, 22,  23, 718, 717
14, 23,  24, 719, 718
15, 24,  25, 720, 719
16, 25,  26, 721, 720
17, 26,  27, 722, 721
18, 27,  28, 723, 722
19, 28,  29, 724, 723
20, 29,  30, 725, 724
** ... 5463 like lines cut
********************* UMAT quad ***********************************
*Element, type=CPE4
5484, 1,  11, 706, 393
5485, 11,  12, 707, 706
5486, 12,  13, 708, 707
5487, 13,  14, 709, 708
5488, 14,  15, 710, 709
5489, 15,  16, 711, 710
5490, 16,  17, 712, 711
5491, 17,  18, 713, 712
5492, 18,  19, 714, 713
5493, 19,  20, 715, 714
5494, 20,  21, 716, 715
5495, 21,  22, 717, 716
5496, 22,  23, 718, 717
5497, 23,  24, 719, 718
5498, 24,  25, 720, 719
5499, 25,  26, 721, 720
5500, 26,  27, 722, 721
5501, 27,  28, 723, 722
5502, 28,  29, 724, 723
5503, 29,  30, 725, 724
** ... 5463 like lines cut
********************* non UMAT quad ***********************************
*Element, type=CPE4
10967, 2,  479, 5762, 394
10968, 479,  478, 5763, 5762
10969, 478,  477, 5764, 5763
10970, 477,  476, 5765, 5764
10971, 476,  475, 5766, 5765
10972, 475,  474, 5767, 5766
10973, 474,  473, 5768, 5767
10974, 473,  472, 5769, 5768
10975, 472,  471, 5770, 5769
10976, 471,  470, 5771, 5770
10977, 470,   8, 666, 5771
10978, 394, 5762, 5772, 395
10979, 5762, 5763, 5773, 5772
10980, 5763, 5764, 5774, 5773
10981, 5764, 5765, 5775, 5774
10982, 5765, 5766, 5776, 5775
10983, 5766, 5767, 5777, 5776
10984, 5767, 5768, 5778, 5777
10985, 5768, 5769, 5779, 5778
10986, 5769, 5770, 5780, 5779
** ... 321 like lines cut
***************************************************************
*Elset, elset=elastic, generate
10967, 11307, 1
*Elset, elset=uel_Beam, generate
5484, 10966, 1
*Elset, elset=uel_Beam_PH, generate
1, 5483, 1
***************************************************************
********************** ASSIGNING MATERIAL PROP ****************
***************************************************************
*Uel property, elset=uel_Beam_PH
3e-05, 989, 2
**lc, gc, AT
***************************************************************
** Section: umaterial
*Solid Section, elset=uel_Beam, material=umaterial
,
** Section: elastic
*Solid Section, elset=elastic, material=elastic
,
*End Part
**  
**
** ASSEMBLY
**
*Assembly, name=Assembly
**  
*Instance, name=beam-1, part=beam
*End Instance
**  
*Node
      1,           0., 0.00179999997,           0.
*Node
      2,           0., -0.00179999997,           0.
*Nset, nset=crack, instance=beam-1
   3,   4,   7, 203, 204, 205, 206, 207, 208, 209, 210, 211, 440, 441, 442, 443
 444, 445, 446, 447, 448, 449, 450, 451, 452, 453, 454, 455, 456, 457, 458, 459
 460, 461, 462, 463, 464, 465, 466, 467, 468, 469
*Elset, elset=crack, instance=beam-1
8483, 8484, 8485, 8486, 8487, 8488, 8489, 8490, 8491, 8492, 8989, 8990, 8991, 8992, 8993, 8994,
8995, 8996, 8997, 8998, 8999, 9000, 9001, 9002, 9003, 9004, 9005, 9006, 9007, 9008, 9009, 9010,
9011, 9012, 9013, 9014, 9015, 9016, 9017, 9018, 9019,
*Nset, nset=fixed, instance=beam-1
   1,   5,   9, 378, 379, 380, 381, 382, 383, 384, 385, 386, 387, 388, 389, 390
 391, 392, 393, 480, 481, 482, 483, 484, 485, 486, 487, 488, 489
*Elset, elset=fixed, instance=beam-1
5484, 5661, 5838, 6015, 6192, 6369, 6546, 6723, 6900, 7077, 7254, 7431, 7608, 7785, 7962, 8139,
8316, 10956, 10957, 10958, 10959, 10960, 10961, 10962, 10963, 10964, 10965, 10966,
*Nset, nset=load_boundary_up, instance=beam-1
   6,   7,  10, 424, 425, 426, 427, 428, 429, 430, 431, 432, 433, 434, 435, 436
 437, 438, 439, 696, 697, 698, 699, 700, 701, 702, 703, 704, 705
*Elset, elset=load_boundary_up, instance=beam-1
8523, 8554, 8585, 8616, 8647, 8678, 8709, 8740, 8771, 8802, 8833, 8864, 8895, 8926, 8957, 8988,
9019, 11297, 11298, 11299, 11300, 11301, 11302, 11303, 11304, 11305, 11306, 11307,
*Nset, nset=load_point_up
 1,
*Nset, nset=xsymme, instance=beam-1
   6,  10, 696, 697, 698, 699, 700, 701, 702, 703, 704, 705
*Elset, elset=xsymme, instance=beam-1
11297, 11298, 11299, 11300, 11301, 11302, 11303, 11304, 11305, 11306, 11307
*Nset, nset=ysymme, instance=beam-1
   3,   5, 212, 213, 214, 215, 216, 217, 218, 219, 220, 221, 222, 223, 224, 225
 226, 227, 228, 229, 230, 231, 232, 233, 234, 235, 236, 237, 238, 239, 240, 241
 242, 243, 244, 245, 246, 247, 248, 249, 250, 251, 252, 253, 254, 255, 256, 257
 258, 259, 260, 261, 262, 263, 264, 265, 266, 267, 268, 269, 270, 271, 272, 273
 274, 275, 276, 277, 278, 279, 280, 281, 282, 283, 284, 285, 286, 287, 288, 289
 290, 291, 292, 293, 294, 295, 296, 297, 298, 299, 300, 301, 302, 303, 304, 305
 306, 307, 308, 309, 310, 311, 312, 313, 314, 315, 316, 317, 318, 319, 320, 321
 322, 323, 324, 325, 326, 327, 328, 329, 330, 331, 332, 333, 334, 335, 336, 337
 338, 339, 340, 341, 342, 343, 344, 345, 346, 347, 348, 349, 350, 351, 352, 353
 354, 355, 356, 357, 358, 359, 360, 361, 362, 363, 364, 365, 366, 367, 368, 369
 370, 371, 372, 373, 374, 375, 376, 377
*Elset, elset=ysymme, instance=beam-1
8316, 8317, 8318, 8319, 8320, 8321, 8322, 8323, 8324, 8325, 8326, 8327, 8328, 8329, 8330, 8331,
8332, 8333, 8334, 8335, 8336, 8337, 8338, 8339, 8340, 8341, 8342, 8343, 8344, 8345, 8346, 8347,
8348, 8349, 8350, 8351, 8352, 8353, 8354, 8355, 8356, 8357, 8358, 8359, 8360, 8361, 8362, 8363,
8364, 8365, 8366, 8367, 8368, 8369, 8370, 8371, 8372, 8373, 8374, 8375, 8376, 8377, 8378, 8379,
8380, 8381, 8382, 8383, 8384, 8385, 8386, 8387, 8388, 8389, 8390, 8391, 8392, 8393, 8394, 8395,
8396, 8397, 8398, 8399, 8400, 8401, 8402, 8403, 8404, 8405, 8406, 8407, 8408, 8409, 8410, 8411,
8412, 8413, 8414, 8415, 8416, 8417, 8418, 8419, 8420, 8421, 8422, 8423, 8424, 8425, 8426, 8427,
8428, 8429, 8430, 8431, 8432, 8433, 8434, 8435, 8436, 8437, 8438, 8439, 8440, 8441, 8442, 8443,
8444, 8445, 8446, 8447, 8448, 8449, 8450, 8451, 8452, 8453, 8454, 8455, 8456, 8457, 8458, 8459,
8460, 8461, 8462, 8463, 8464, 8465, 8466, 8467, 8468, 8469, 8470, 8471, 8472, 8473, 8474, 8475,
8476, 8477, 8478, 8479, 8480, 8481, 8482
** Constraint: Constraint-1
*Equation
2
load_boundary_up, 2, 1.
load_point_up, 2, -1.
**
*Elset, elset=umatelem, instance=beam-1, generate
5484, 10966, 1
*Elset, elset=allelem, instance=beam-1, generate
5484, 11307, 1
**
*End Assembly
***************************************************************
*Amplitude, name=Amp-crk, time=TOTAL TIME
             0.,              0.,            0.25,              4.,             0.5,              0.,             10.,              0.
*Amplitude, name=Amp-load, time=TOTAL TIME
             0.,              0.,              1.,           8e-05,              2.,          0.0002
** 
** MATERIALS
** 
*Material, name=elastic
*Elastic
 1e+10, 0.3
*Material, name=umaterial
*Depvar
      2,
*User Material, constants=5
 1e+10,   0.3, 3e-05,  989.,    2.
** ----------------------------------------------------------------
** 
** STEP: Step-1
** 
*Step, name=Step-1, nlgeom=NO, extrapolation=NO, inc=4
*Static, direct
0.25, 1., 
** 
** BOUNDARY CONDITIONS
** 
** Name: crack Type: Velocity/Angular velocity
*Boundary, amplitude=Amp-crk, type=VELOCITY
crack, 6, 6, 1.
** Name: fixed Type: Displacement/Rotation
*Boundary
fixed, 1, 1
fixed, 2, 2
** Name: xsmme Type: Displacement/Rotation
*Boundary
xsymme, 1, 1
** Name: ysmme Type: Displacement/Rotation
*Boundary
ysymme, 2, 2
** 
** OUTPUT REQUESTS
** 
*Restart, write, frequency=0
** 
** FIELD OUTPUT: F-Output-1
** 
*Output, field, number interval=20, time marks=NO
*Node Output
U, 
*Element Output, directions=YES
SDV, 
** 
** HISTORY OUTPUT: H-Output-1
** 
*Output, history, variable=PRESELECT
**
*CONTROLS, PARAMETERS=TIME INCREMENTATION
25, 100, , 100, , , , 100, , ,
*End Step
** ----------------------------------------------------------------
** 
** STEP: Step-2
** 
*Step, name=Step-2, nlgeom=NO, extrapolation=NO, inc=1000
*Static, direct
0.001, 1., 
** 
** BOUNDARY CONDITIONS
** 
** Name: up Type: Displacement/Rotation
*Boundary, amplitude=Amp-load
load_point_up, 2, 2, 1.
** 
** OUTPUT REQUESTS
** 
*Restart, write, frequency=0
** 
** FIELD OUTPUT: F-Output-1
** 
*Output, field, number interval=20, time marks=NO
*Node Output
U, 
*Element Output, directions=YES
SDV, 
** 
** HISTORY OUTPUT: H-Output-1
** 
*Output, history, variable=PRESELECT
**
*CONTROLS, PARAMETERS=TIME INCREMENTATION
25, 100, , 100, , , , 100, , ,
*End Step
